studies/australian_pv/source/MV21_328bus/Switches.dss
new line.Switch_76_CLOSED lineCode=ughv_400al_triplex_ug_3w_bundled bus1=B2583 bus2=B2465 length=0.00100000000000 units=km switch=y phases=3
new line.Switch_125_CLOSED lineCode=ughv_400al_triplex_ug_3w_bundled bus1=B2131 bus2=B90 length=0.00100000000000 units=km switch=y phases=3
new line.Switch_144_CLOSED lineCode=ughv_400al_triplex_ug_3w_bundled bus1=B2020 bus2=B503 length=0.00100000000000 units=km switch=y phases=3
new line.Switch_199_CLOSED lineCode=ughv_400al_triplex_ug_3w_bundled bus1=B1256 bus2=B2444 length=0.00100000000000 units=km switch=y phases=3
new line.Switch_202_CLOSED lineCode=ughv_400al_triplex_ug_3w_bundled bus1=B848 bus2=B2622 length=0.00100000000000 units=km switch=y phases=3
new line.Switch_231_CLOSED lineCode=ughv_400al_triplex_ug_3w_bundled bus1=B2527 bus2=B1655 length=0.00100000000000 units=km switch=y phases=3
new line.Switch_268_CLOSED lineCode=ughv_400al_triplex_ug_3w_bundled bus1=B2350 bus2=B361 length=0.00100000000000 units=km switch=y phases=3
new line.Switch_291_CLOSED lineCode=ughv_400al_triplex_ug_3w_bundled bus1=B3322 bus2=B1611 length=0.00100000000000 units=km switch=y phases=3
new line.Switch_341_CLOSED lineCode=ughv_400al_triplex_ug_3w_bundled bus1=B566 bus2=B766 length=0.00100000000000 units=km switch=y phases=3
new line.Switch_386_CLOSED lineCode=ughv_400al_triplex_ug_3w_bundled bus1=B2001 bus2=B2007 length=0.00100000000000 units=km switch=y phases=3
new line.Switch_464_CLOSED lineCode=ughv_400al_triplex_ug_3w_bundled bus1=B777 bus2=B1238 length=0.00100000000000 units=km switch=y phases=3
new line.Switch_543_CLOSED lineCode=ughv_400al_triplex_ug_3w_bundled bus1=B479 bus2=B712 length=0.00100000000000 units=km switch=y phases=3
new line.Switch_601_CLOSED lineCode=ughv_400al_triplex_ug_3w_bundled bus1=B1524 bus2=B637 length=0.00100000000000 units=km switch=y phases=3
new line.Switch_608_CLOSED lineCode=ughv_400al_triplex_ug_3w_bundled bus1=B2628 bus2=B3396 length=0.00100000000000 units=km switch=y phases=3
new line.Switch_629_CLOSED lineCode=ughv_400al_triplex_ug_3w_bundled bus1=B2050 bus2=B610 length=0.00100000000000 units=km switch=y phases=3
new line.Switch_685_CLOSED lineCode=ughv_400al_triplex_ug_3w_bundled bus1=B939 bus2=B1322 length=0.00100000000000 units=km switch=y phases=3
new line.Switch_707_CLOSED lineCode=ughv_400al_triplex_ug_3w_bundled bus1=B979 bus2=B1388 length=0.00100000000000 units=km switch=y phases=3
new line.Switch_708_CLOSED lineCode=ughv_400al_triplex_ug_3w_bundled bus1=B2521 bus2=B2355 length=0.00100000000000 units=km switch=y phases=3
new line.Switch_714_CLOSED lineCode=ughv_400al_triplex_ug_3w_bundled bus1=B2926 bus2=B1962 length=0.00100000000000 units=km switch=y phases=3
new line.Switch_734_CLOSED lineCode=ughv_400al_triplex_ug_3w_bundled bus1=B2215 bus2=B631 length=0.00100000000000 units=km switch=y phases=3
new line.Switch_883_CLOSED lineCode=ughv_400al_triplex_ug_3w_bundled bus1=B853 bus2=B3139 length=0.00100000000000 units=km switch=y phases=3
new line.Switch_957_CLOSED lineCode=ughv_400al_triplex_ug_3w_bundled bus1=B3063 bus2=B1828 length=0.00100000000000 units=km switch=y phases=3
new line.Switch_1024_CLOSED lineCode=ughv_400al_triplex_ug_3w_bundled bus1=B1212 bus2=B1383 length=0.00100000000000 units=km switch=y phases=3
new line.Switch_1105_CLOSED lineCode=ughv_400al_triplex_ug_3w_bundled bus1=B2068 bus2=B1147 length=0.00100000000000 units=km switch=y phases=3
new line.Switch_1111_CLOSED lineCode=ughv_400al_triplex_ug_3w_bundled bus1=B1887 bus2=B962 length=0.00100000000000 units=km switch=y phases=3
new line.Switch_1141_CLOSED lineCode=ughv_400al_triplex_ug_3w_bundled bus1=B3232 bus2=B1941 length=0.00100000000000 units=km switch=y phases=3
new line.Switch_1204_CLOSED lineCode=ughv_400al_triplex_ug_3w_bundled bus1=B1934 bus2=B889 length=0.00100000000000 units=km switch=y phases=3
new line.Switch_1276_CLOSED lineCode=ughv_400al_triplex_ug_3w_bundled bus1=B1796 bus2=B282 length=0.00100000000000 units=km switch=y phases=3
new line.Switch_1417_CLOSED lineCode=ughv_400al_triplex_ug_3w_bundled bus1=B936 bus2=B973 length=0.00100000000000 units=km switch=y phases=3
new line.Switch_1434_CLOSED lineCode=ughv_400al_triplex_ug_3w_bundled bus1=B2982 bus2=B1364 length=0.00100000000000 units=km switch=y phases=3
new line.Switch_1570_CLOSED lineCode=ughv_400al_triplex_ug_3w_bundled bus1=B515 bus2=B2093 length=0.00100000000000 units=km switch=y phases=3
new line.Switch_1750_CLOSED lineCode=ughv_400al_triplex_ug_3w_bundled bus1=B1156 bus2=B561 length=0.00100000000000 units=km switch=y phases=3
new line.Switch_1793_CLOSED lineCode=ughv_400al_triplex_ug_3w_bundled bus1=B1619 bus2=B71 length=0.00100000000000 units=km switch=y phases=3
new line.Switch_1797_CLOSED lineCode=ughv_400al_triplex_ug_3w_bundled bus1=B351 bus2=B2739 length=0.00100000000000 units=km switch=y phases=3
new line.Switch_1831_CLOSED lineCode=ughv_400al_triplex_ug_3w_bundled bus1=B642 bus2=B3056 length=0.00100000000000 units=km switch=y phases=3
new line.Switch_1964_CLOSED lineCode=ughv_400al_triplex_ug_3w_bundled bus1=B2369 bus2=B1305 length=0.00100000000000 units=km switch=y phases=3
new line.Switch_2024_CLOSED lineCode=ughv_400al_triplex_ug_3w_bundled bus1=B3003 bus2=B405 length=0.00100000000000 units=km switch=y phases=3
new line.Switch_2025_CLOSED lineCode=ughv_400al_triplex_ug_3w_bundled bus1=B3313 bus2=B463 length=0.00100000000000 units=km switch=y phases=3
new line.Switch_2129_CLOSED lineCode=ughv_400al_triplex_ug_3w_bundled bus1=B650 bus2=B2090 length=0.00100000000000 units=km switch=y phases=3
new line.Switch_2246_CLOSED lineCode=ughv_400al_triplex_ug_3w_bundled bus1=B2791 bus2=B1225 length=0.00100000000000 units=km switch=y phases=3
new line.Switch_2278_CLOSED lineCode=ughv_400al_triplex_ug_3w_bundled bus1=B2477 bus2=B2244 length=0.00100000000000 units=km switch=y phases=3
new line.Switch_2291_CLOSED lineCode=ughv_400al_triplex_ug_3w_bundled bus1=B1140 bus2=B1128 length=0.00100000000000 units=km switch=y phases=3
new line.Switch_2341_CLOSED lineCode=ughv_400al_triplex_ug_3w_bundled bus1=B1461 bus2=B2798 length=0.00100000000000 units=km switch=y phases=3
new line.Switch_2440_CLOSED lineCode=ughv_400al_triplex_ug_3w_bundled bus1=B614 bus2=B814 length=0.00100000000000 units=km switch=y phases=3
new line.Switch_2490_CLOSED lineCode=ughv_400al_triplex_ug_3w_bundled bus1=B1973 bus2=B916 length=0.00100000000000 units=km switch=y phases=3
new line.Switch_2554_CLOSED lineCode=ughv_400al_triplex_ug_3w_bundled bus1=B96 bus2=B1027 length=0.00100000000000 units=km switch=y phases=3
new line.Switch_2564_CLOSED lineCode=ughv_400al_triplex_ug_3w_bundled bus1=B3196 bus2=B2859 length=0.00100000000000 units=km switch=y phases=3
new line.Switch_2592_CLOSED lineCode=ughv_400al_triplex_ug_3w_bundled bus1=B275 bus2=B539 length=0.00100000000000 units=km switch=y phases=3
new line.Switch_2599_CLOSED lineCode=ughv_400al_triplex_ug_3w_bundled bus1=B2238 bus2=B217 length=0.00100000000000 units=km switch=y phases=3
new line.Switch_2600_CLOSED lineCode=ughv_400al_triplex_ug_3w_bundled bus1=B1154 bus2=B2898 length=0.00100000000000 units=km switch=y phases=3
new line.Switch_2624_CLOSED lineCode=ughv_400al_triplex_ug_3w_bundled bus1=B2604 bus2=B1908 length=0.00100000000000 units=km switch=y phases=3
new line.Switch_2670_CLOSED lineCode=ughv_400al_triplex_ug_3w_bundled bus1=B1367 bus2=B273 length=0.00100000000000 units=km switch=y phases=3
new line.Switch_2717_CLOSED lineCode=ughv_400al_triplex_ug_3w_bundled bus1=B612 bus2=B3343 length=0.00100000000000 units=km switch=y phases=3
new line.Switch_2843_CLOSED lineCode=ughv_400al_triplex_ug_3w_bundled bus1=B377 bus2=B2606 length=0.00100000000000 units=km switch=y phases=3
new line.Switch_3024_CLOSED lineCode=ughv_400al_triplex_ug_3w_bundled bus1=B2742 bus2=B1330 length=0.00100000000000 units=km switch=y phases=3
new line.Switch_3070_CLOSED lineCode=ughv_400al_triplex_ug_3w_bundled bus1=B3171 bus2=B1812 length=0.00100000000000 units=km switch=y phases=3
new line.Switch_3078_CLOSED lineCode=ughv_400al_triplex_ug_3w_bundled bus1=B866 bus2=B3048 length=0.00100000000000 units=km switch=y phases=3
new line.Switch_3307_CLOSED lineCode=ughv_400al_triplex_ug_3w_bundled bus1=B3011 bus2=B2119 length=0.00100000000000 units=km switch=y phases=3
new line.Switch_3331_CLOSED lineCode=ughv_400al_triplex_ug_3w_bundled bus1=B246 bus2=B2906 length=0.00100000000000 units=km switch=y phases=3
new line.Switch_3356_CLOSED lineCode=ughv_400al_triplex_ug_3w_bundled bus1=B775 bus2=B3187 length=0.00100000000000 units=km switch=y phases=3
new line.Switch_3403_CLOSED lineCode=ughv_400al_triplex_ug_3w_bundled bus1=B1058 bus2=B2289 length=0.00100000000000 units=km switch=y phases=3
new line.Switch_3482_CLOSED lineCode=ughv_400al_triplex_ug_3w_bundled bus1=B175 bus2=B655 length=0.00100000000000 units=km switch=y phases=3
new line.Switch_3533_CLOSED lineCode=ughv_400al_triplex_ug_3w_bundled bus1=B155 bus2=B2561 length=0.00100000000000 units=km switch=y phases=3
new line.Switch_3558_CLOSED lineCode=ughv_400al_triplex_ug_3w_bundled bus1=B1127 bus2=B2534 length=0.00100000000000 units=km switch=y phases=3
new line.Switch_3616_CLOSED lineCode=ughv_400al_triplex_ug_3w_bundled bus1=B1319 bus2=B743 length=0.00100000000000 units=km switch=y phases=3
new line.Switch_3698_CLOSED lineCode=ughv_400al_triplex_ug_3w_bundled bus1=B2507 bus2=B87 length=0.00100000000000 units=km switch=y phases=3
new line.Switch_3702_CLOSED lineCode=ughv_400al_triplex_ug_3w_bundled bus1=B296 bus2=B1421 length=0.00100000000000 units=km switch=y phases=3
new line.Switch_3743_CLOSED lineCode=ughv_400al_triplex_ug_3w_bundled bus1=B370 bus2=B3212 length=0.00100000000000 units=km switch=y phases=3
new line.Switch_3793_CLOSED lineCode=ughv_400al_triplex_ug_3w_bundled bus1=B3147 bus2=B426 length=0.00100000000000 units=km switch=y phases=3
new line.Switch_3826_CLOSED lineCode=ughv_400al_triplex_ug_3w_bundled bus1=B3409 bus2=B446 length=0.00100000000000 units=km switch=y phases=3
new line.Switch_3833_CLOSED lineCode=ughv_400al_triplex_ug_3w_bundled bus1=B3132 bus2=B2147 length=0.00100000000000 units=km switch=y phases=3
new line.Switch_3851_CLOSED lineCode=ughv_400al_triplex_ug_3w_bundled bus1=B440 bus2=B482 length=0.00100000000000 units=km switch=y phases=3
new line.Switch_3904_CLOSED lineCode=ughv_400al_triplex_ug_3w_bundled bus1=B3399 bus2=B1536 length=0.00100000000000 units=km switch=y phases=3
new line.Switch_3925_CLOSED lineCode=ughv_400al_triplex_ug_3w_bundled bus1=B786 bus2=B1102 length=0.00100000000000 units=km switch=y phases=3
new line.Switch_3941_CLOSED lineCode=ughv_400al_triplex_ug_3w_bundled bus1=B1975 bus2=B2240 length=0.00100000000000 units=km switch=y phases=3
new line.Switch_4011_CLOSED lineCode=ughv_400al_triplex_ug_3w_bundled bus1=B3214 bus2=B2834 length=0.00100000000000 units=km switch=y phases=3
new line.Switch_4176_CLOSED lineCode=ughv_400al_triplex_ug_3w_bundled bus1=B2398 bus2=B181 length=0.00100000000000 units=km switch=y phases=3
new line.Switch_4185_CLOSED lineCode=ughv_400al_triplex_ug_3w_bundled bus1=B2625 bus2=B462 length=0.00100000000000 units=km switch=y phases=3
new line.Switch_4234_CLOSED lineCode=ughv_400al_triplex_ug_3w_bundled bus1=B2175 bus2=B3276 length=0.00100000000000 units=km switch=y phases=3
new line.Switch_4248_CLOSED lineCode=ughv_400al_triplex_ug_3w_bundled bus1=B3290 bus2=B1942 length=0.00100000000000 units=km switch=y phases=3
new line.Switch_4268_CLOSED lineCode=ughv_400al_triplex_ug_3w_bundled bus1=B1765 bus2=B374 length=0.00100000000000 units=km switch=y phases=3
new line.Switch_4317_CLOSED lineCode=ughv_400al_triplex_ug_3w_bundled bus1=B1689 bus2=B2080 length=0.00100000000000 units=km switch=y phases=3
new line.Switch_4341_CLOSED lineCode=ughv_400al_triplex_ug_3w_bundled bus1=B493 bus2=B1257 length=0.00100000000000 units=km switch=y phases=3
new line.Switch_4526_CLOSED lineCode=ughv_400al_triplex_ug_3w_bundled bus1=B3392 bus2=B678 length=0.00100000000000 units=km switch=y phases=3
